Version 4
SHEET 1 4312 1760
WIRE -32 -16 -48 -16
WIRE -16 -16 -32 -16
WIRE 112 -16 64 -16
WIRE 144 -16 112 -16
WIRE 288 -16 224 -16
WIRE 384 -16 288 -16
WIRE 608 -16 384 -16
WIRE 704 -16 608 -16
WIRE 1504 -16 1392 -16
WIRE 1648 -16 1504 -16
WIRE 1776 -16 1648 -16
WIRE 1968 -16 1776 -16
WIRE 1984 -16 1968 -16
WIRE 288 16 288 -16
WIRE 608 16 608 -16
WIRE 384 32 384 -16
WIRE 704 32 704 -16
WIRE 1392 32 1392 -16
WIRE 1648 32 1648 -16
WIRE 1504 48 1504 -16
WIRE 1776 48 1776 -16
WIRE 1984 64 1984 -16
WIRE 112 96 112 -16
WIRE 240 96 208 96
WIRE 560 96 528 96
WIRE 272 144 272 128
WIRE 272 144 256 144
WIRE 592 144 592 128
WIRE 592 144 576 144
WIRE 288 160 288 128
WIRE 384 160 384 96
WIRE 384 160 288 160
WIRE 608 160 608 128
WIRE 704 160 704 96
WIRE 704 160 608 160
WIRE 960 160 864 160
WIRE 1152 160 1040 160
WIRE 1392 176 1392 96
WIRE 1504 176 1504 112
WIRE 1504 176 1392 176
WIRE 1648 176 1648 96
WIRE 1776 176 1776 112
WIRE 1776 176 1648 176
WIRE -48 208 -48 -16
WIRE 288 208 288 160
WIRE 736 208 288 208
WIRE 864 208 864 160
WIRE 864 208 800 208
WIRE 1152 208 1152 160
WIRE 1216 208 1152 208
WIRE 1392 208 1392 176
WIRE 1392 208 1280 208
WIRE 112 224 112 176
WIRE 1984 224 1984 144
WIRE 608 304 608 160
WIRE 864 304 608 304
WIRE 1648 304 1648 176
WIRE 1648 304 1152 304
WIRE 1392 336 1392 208
WIRE 1504 336 1392 336
WIRE 1648 336 1648 304
WIRE 1776 336 1648 336
WIRE 864 352 864 304
WIRE 1152 352 1152 304
WIRE 1152 352 864 352
WIRE 288 368 288 208
WIRE 384 368 288 368
WIRE 608 368 608 304
WIRE 704 368 608 368
WIRE 1504 384 1504 336
WIRE 1776 384 1776 336
WIRE 288 400 288 368
WIRE 608 400 608 368
WIRE 384 416 384 368
WIRE 704 416 704 368
WIRE 1648 416 1648 336
WIRE 1392 432 1392 336
WIRE 240 480 208 480
WIRE 560 480 528 480
WIRE 272 528 272 512
WIRE 272 528 256 528
WIRE 592 528 592 512
WIRE 592 528 576 528
WIRE -48 544 -48 288
WIRE 112 544 112 288
WIRE 112 544 -48 544
WIRE 288 544 288 512
WIRE 288 544 112 544
WIRE 384 544 384 480
WIRE 384 544 288 544
WIRE 608 544 608 512
WIRE 608 544 384 544
WIRE 704 544 704 480
WIRE 704 544 608 544
WIRE 1392 544 1392 496
WIRE 1504 544 1504 448
WIRE 1504 544 1392 544
WIRE 1648 544 1648 480
WIRE 1648 544 1504 544
WIRE 1776 544 1776 448
WIRE 1776 544 1648 544
WIRE 1984 544 1984 288
WIRE 1984 544 1776 544
WIRE -48 592 -48 544
WIRE 1984 592 1984 544
WIRE 2240 672 2208 672
WIRE 2384 672 2320 672
WIRE 2528 672 2464 672
WIRE -80 704 -112 704
WIRE 64 704 0 704
WIRE 224 704 144 704
WIRE 2240 800 2208 800
WIRE 2384 800 2320 800
WIRE 2528 800 2464 800
WIRE -80 864 -112 864
WIRE 64 864 0 864
WIRE 224 864 144 864
WIRE 2240 944 2208 944
WIRE 2384 944 2320 944
WIRE 2528 944 2464 944
WIRE -80 1024 -112 1024
WIRE 64 1024 0 1024
WIRE 224 1024 144 1024
WIRE 2240 1088 2208 1088
WIRE 2384 1088 2320 1088
WIRE 2528 1088 2464 1088
WIRE -80 1184 -112 1184
WIRE 64 1184 0 1184
WIRE 224 1184 144 1184
WIRE -80 1328 -112 1328
WIRE 32 1328 0 1328
FLAG 224 704 g1_1
FLAG -112 704 s1_1
FLAG -112 1328 0
FLAG 32 1328 T
FLAG 320 416 T
FLAG 320 480 T
FLAG 320 32 T
FLAG 320 96 T
FLAG 640 416 T
FLAG 640 480 T
FLAG 640 32 T
FLAG 640 96 T
FLAG 224 864 g1_2
FLAG -112 864 s1_2
FLAG 224 1024 g1_3
FLAG -112 1024 s1_3
FLAG 224 1184 g1_4
FLAG -112 1184 s1_4
FLAG 208 96 g1_1
FLAG 208 480 g1_2
FLAG 528 480 g1_4
FLAG 528 96 g1_3
FLAG 256 144 s1_1
FLAG 256 528 s1_2
FLAG 576 528 s1_4
FLAG 576 144 s1_3
FLAG -48 592 0
FLAG 1984 592 0
FLAG 2528 672 g2_1
FLAG 2208 672 s2_1
FLAG 2528 800 g2_2
FLAG 2208 800 s2_2
FLAG 2528 944 g2_3
FLAG 2208 944 s2_3
FLAG 2528 1088 g2_4
FLAG 2208 1088 s2_4
FLAG 1968 -16 OUT
FLAG -32 -16 IN
SYMBOL voltage 16 704 R90
WINDOW 3 -57 159 VLeft 2
WINDOW 123 0 0 Left 0
WINDOW 39 0 0 Left 0
SYMATTR Value PULSE(-1 15 0 1n 1n {.5/f_sw-dead} {1/f_sw})
SYMATTR InstName G11
SYMBOL voltage 16 1328 M270
WINDOW 0 32 56 VTop 2
WINDOW 3 -32 56 VBottom 2
SYMATTR InstName Temperature
SYMATTR Value 25
SYMBOL cree\\nmos_TO247_4L 240 400 R0
WINDOW 3 -78 27 Invisible 2
WINDOW 0 -76 50 Invisible 2
SYMATTR Value C3M0016120K
SYMATTR InstName U1
SYMBOL voltage -48 192 R0
WINDOW 123 0 0 Left 0
WINDOW 39 24 120 Left 2
SYMATTR SpiceLine Rser=10m
SYMATTR InstName V3
SYMATTR Value 700
SYMBOL cree\\nmos_TO247_4L 240 16 R0
WINDOW 3 -78 27 Invisible 2
WINDOW 0 -76 50 Invisible 2
SYMATTR Value C3M0016120K
SYMATTR InstName U2
SYMBOL cree\\nmos_TO247_4L 560 400 R0
WINDOW 3 -78 27 Invisible 2
WINDOW 0 -76 50 Invisible 2
SYMATTR Value C3M0016120K
SYMATTR InstName U3
SYMBOL cree\\nmos_TO247_4L 560 16 R0
WINDOW 3 -78 27 Invisible 2
WINDOW 0 -76 50 Invisible 2
SYMATTR Value C3M0016120K
SYMATTR InstName U4
SYMBOL voltage 16 864 R90
WINDOW 3 -57 159 VLeft 2
WINDOW 123 0 0 Left 0
WINDOW 39 0 0 Left 0
SYMATTR Value PULSE(-1 15 {.5/f_sw} 1n 1n {.5/f_sw-dead} {1/f_sw})
SYMATTR InstName G12
SYMBOL voltage 16 1024 R90
WINDOW 3 -57 159 VLeft 2
WINDOW 123 0 0 Left 0
WINDOW 39 0 0 Left 0
SYMATTR Value PULSE(-1 15 {.5/f_sw} 1n 1n {.5/f_sw-dead} {1/f_sw})
SYMATTR InstName G13
SYMBOL voltage 16 1184 R90
WINDOW 3 -57 159 VLeft 2
WINDOW 123 0 0 Left 0
WINDOW 39 0 0 Left 0
SYMATTR Value PULSE(-1 15 0 1n 1n {.5/f_sw-dead} {1/f_sw})
SYMATTR InstName G14
SYMBOL cap 800 192 R90
WINDOW 0 0 32 VBottom 2
WINDOW 3 32 32 VTop 2
WINDOW 39 56 32 VTop 2
SYMATTR InstName Cb
SYMATTR Value {C_block}
SYMATTR SpiceLine Lser={L_cb}
SYMBOL cap 1216 192 M90
WINDOW 0 0 32 VBottom 2
WINDOW 3 32 32 VTop 2
WINDOW 39 56 32 VTop 2
SYMATTR InstName Cb1
SYMATTR Value {C_block}
SYMATTR SpiceLine Lser={L_cb}
SYMBOL cap 1968 224 R0
WINDOW 39 24 80 Left 2
SYMATTR SpiceLine Rser=10m
SYMATTR InstName Cbus
SYMATTR Value {C_bus}
SYMBOL voltage 2336 672 R90
WINDOW 3 33 87 VRight 2
WINDOW 123 0 0 Left 0
WINDOW 39 0 0 Left 0
SYMATTR Value -1
SYMATTR InstName V1
SYMBOL voltage 2336 800 R90
WINDOW 3 33 87 VRight 2
WINDOW 123 0 0 Left 0
WINDOW 39 0 0 Left 0
SYMATTR Value -1
SYMATTR InstName V2
SYMBOL voltage 2336 944 R90
WINDOW 3 33 87 VRight 2
WINDOW 123 0 0 Left 0
WINDOW 39 0 0 Left 0
SYMATTR Value -1
SYMATTR InstName V4
SYMBOL voltage 2336 1088 R90
WINDOW 3 33 87 VRight 2
WINDOW 123 0 0 Left 0
WINDOW 39 0 0 Left 0
SYMATTR Value -1
SYMATTR InstName V5
SYMBOL res 160 688 R90
WINDOW 0 0 56 VBottom 2
WINDOW 3 32 56 VTop 2
SYMATTR InstName R1
SYMATTR Value 2
SYMBOL res 160 848 R90
WINDOW 0 0 56 VBottom 2
WINDOW 3 32 56 VTop 2
SYMATTR InstName R2
SYMATTR Value 2
SYMBOL res 160 1008 R90
WINDOW 0 0 56 VBottom 2
WINDOW 3 32 56 VTop 2
SYMATTR InstName R3
SYMATTR Value 2
SYMBOL res 160 1168 R90
WINDOW 0 0 56 VBottom 2
WINDOW 3 32 56 VTop 2
SYMATTR InstName R4
SYMATTR Value 2
SYMBOL res 2480 656 R90
WINDOW 0 0 56 VBottom 2
WINDOW 3 32 56 VTop 2
SYMATTR InstName R5
SYMATTR Value 2
SYMBOL res 2480 784 R90
WINDOW 0 0 56 VBottom 2
WINDOW 3 32 56 VTop 2
SYMATTR InstName R6
SYMATTR Value 2
SYMBOL res 2480 928 R90
WINDOW 0 0 56 VBottom 2
WINDOW 3 32 56 VTop 2
SYMATTR InstName R7
SYMATTR Value 2
SYMBOL res 2480 1072 R90
WINDOW 0 0 56 VBottom 2
WINDOW 3 32 56 VTop 2
SYMATTR InstName R8
SYMATTR Value 2
SYMBOL cree\\diode\\CPW51200Z050B 384 64 R180
WINDOW 0 8 32 Left 2
WINDOW 3 8 -32 Invisible 2
SYMATTR InstName D1
SYMBOL cree\\diode\\CPW51200Z050B 704 64 R180
WINDOW 0 8 32 Left 2
WINDOW 3 8 -32 Invisible 2
SYMATTR InstName D2
SYMBOL cree\\diode\\CPW51200Z050B 384 448 R180
WINDOW 0 8 32 Left 2
WINDOW 3 8 -32 Invisible 2
SYMATTR InstName D3
SYMBOL cree\\diode\\CPW51200Z050B 704 448 R180
WINDOW 0 8 32 Left 2
WINDOW 3 8 -32 Invisible 2
SYMATTR InstName D4
SYMBOL cree\\diode\\CPW51200Z050B 1392 64 R180
WINDOW 0 8 32 Left 2
WINDOW 3 8 -32 Invisible 2
SYMATTR InstName D5
SYMBOL cree\\diode\\CPW51200Z050B 1648 64 R180
WINDOW 0 8 32 Left 2
WINDOW 3 8 -32 Invisible 2
SYMATTR InstName D6
SYMBOL cree\\diode\\CPW51200Z050B 1392 464 R180
WINDOW 0 8 32 Left 2
WINDOW 3 8 -32 Invisible 2
SYMATTR InstName D7
SYMBOL cree\\diode\\CPW51200Z050B 1648 448 R180
WINDOW 0 8 32 Left 2
WINDOW 3 8 -32 Invisible 2
SYMATTR InstName D8
SYMBOL cap 96 224 R0
SYMATTR InstName C1
SYMATTR Value 0.47u
SYMBOL ind -32 0 R270
WINDOW 0 32 56 VTop 2
WINDOW 3 5 56 VBottom 2
SYMATTR InstName L7
SYMATTR Value 100n
SYMBOL ind 96 80 R0
SYMATTR InstName L9
SYMATTR Value 100n
SYMBOL res 240 -32 R90
WINDOW 0 0 56 VBottom 2
WINDOW 3 32 56 VTop 2
SYMATTR InstName R9
SYMATTR Value 0.5m
SYMBOL ind 1968 48 R0
SYMATTR InstName L11
SYMATTR Value 100n
SYMBOL ind 944 176 R270
WINDOW 0 32 56 VTop 2
WINDOW 3 5 56 VBottom 2
SYMATTR InstName L1
SYMATTR Value {(l_ph+l_s)*2}
SYMBOL cap 1488 48 R0
SYMATTR InstName C2
SYMATTR Value 6n
SYMBOL cap 1488 384 R0
SYMATTR InstName C3
SYMATTR Value 6n
SYMBOL cap 1760 384 R0
SYMATTR InstName C4
SYMATTR Value 6n
SYMBOL cap 1760 48 R0
SYMATTR InstName C5
SYMATTR Value 6n
TEXT 1576 664 Left 3 !.options plotwinsize=0\n \n;.save V(out) V(hf+) V(hf-)\n \n.ic V(out)=700 V(in)=700\n \n.tran 300u
TEXT 976 664 Left 3 !.param f_sw=20k dead=1.5u\n \n.param c_block=100u l_cb=200n\n \n.param c_p=400p c_s=200p c_ps=100p\n \n.param l_m=60m l_s=4u\n \n.param l_ph=10u\n \n.param c_bus=1000u
TEXT -40 -168 Left 3 !.include C:\\Users\\99708\\Documents\\LTspiceXVII\\lib\\cree\\C3M0016120K.lib\n.include C:\\Users\\99708\\Documents\\LTspiceXVII\\lib\\cree\\Cree Power CPW5 Bare Die SPICE Model Library.lib
TEXT -32 -232 Left 3 ;Author: Li Huaru @Tsinghua University
